<?xml version="1.0" encoding="UTF-8"?>

<!-- generated on 2025-08-16 16:00:58 by Eclipse SUMO netconvert Version 1.23.1
<netconvertConfiguration xmlns:xsi="http://www.w3.org/2001/XMLSchema-instance" xsi:noNamespaceSchemaLocation="http://sumo.dlr.de/xsd/netconvertConfiguration.xsd">

    <input>
        <node-files value="sumo_scenarios/grid_4x4_tl/grid_4x4.nod.xml"/>
        <edge-files value="sumo_scenarios/grid_4x4_tl/grid_4x4.edg.xml"/>
    </input>

    <output>
        <output-file value="sumo_scenarios/grid_4x4_tl/grid_4x4.net.xml"/>
    </output>

</netconvertConfiguration>
-->

<net version="1.20" junctionCornerDetail="5" limitTurnSpeed="5.50" xmlns:xsi="http://www.w3.org/2001/XMLSchema-instance" xsi:noNamespaceSchemaLocation="http://sumo.dlr.de/xsd/net_file.xsd">

    <location netOffset="200.00,200.00" convBoundary="0.00,0.00,1000.00,1000.00" origBoundary="-200.00,-200.00,800.00,800.00" projParameter="!"/>

    <edge id=":c11_0" function="internal">
        <lane id=":c11_0_0" index="0" speed="6.51" length="9.03" shape="195.20,210.40 194.85,207.95 193.80,206.20 192.05,205.15 189.60,204.80"/>
    </edge>
    <edge id=":c11_1" function="internal">
        <lane id=":c11_1_0" index="0" speed="13.89" length="20.80" shape="195.20,210.40 195.20,189.60"/>
        <lane id=":c11_1_1" index="1" speed="13.89" length="20.80" shape="198.40,210.40 198.40,189.60"/>
    </edge>
    <edge id=":c11_3" function="internal">
        <lane id=":c11_3_0" index="0" speed="9.26" length="5.01" shape="198.40,210.40 199.11,205.44"/>
    </edge>
    <edge id=":c11_4" function="internal">
        <lane id=":c11_4_0" index="0" speed="3.65" length="1.44" shape="198.40,210.40 199.20,209.20"/>
    </edge>
    <edge id=":c11_20" function="internal">
        <lane id=":c11_20_0" index="0" speed="9.26" length="14.34" shape="199.11,205.44 199.15,205.15 201.40,201.40 205.15,199.15 210.40,198.40"/>
    </edge>
    <edge id=":c11_21" function="internal">
        <lane id=":c11_21_0" index="0" speed="3.65" length="3.23" shape="199.20,209.20 200.00,208.80 200.80,209.20 201.60,210.40"/>
    </edge>
    <edge id=":c11_5" function="internal">
        <lane id=":c11_5_0" index="0" speed="6.51" length="9.03" shape="210.40,204.80 207.95,205.15 206.20,206.20 205.15,207.95 204.80,210.40"/>
    </edge>
    <edge id=":c11_6" function="internal">
        <lane id=":c11_6_0" index="0" speed="13.89" length="20.80" shape="210.40,204.80 189.60,204.80"/>
        <lane id=":c11_6_1" index="1" speed="13.89" length="20.80" shape="210.40,201.60 189.60,201.60"/>
    </edge>
    <edge id=":c11_8" function="internal">
        <lane id=":c11_8_0" index="0" speed="9.26" length="5.01" shape="210.40,201.60 205.44,200.89"/>
    </edge>
    <edge id=":c11_9" function="internal">
        <lane id=":c11_9_0" index="0" speed="3.65" length="1.44" shape="210.40,201.60 209.20,200.80"/>
    </edge>
    <edge id=":c11_22" function="internal">
        <lane id=":c11_22_0" index="0" speed="9.26" length="14.34" shape="205.44,200.89 205.15,200.85 201.40,198.60 199.15,194.85 198.40,189.60"/>
    </edge>
    <edge id=":c11_23" function="internal">
        <lane id=":c11_23_0" index="0" speed="3.65" length="3.23" shape="209.20,200.80 208.80,200.00 209.20,199.20 210.40,198.40"/>
    </edge>
    <edge id=":c11_10" function="internal">
        <lane id=":c11_10_0" index="0" speed="6.51" length="9.03" shape="204.80,189.60 205.15,192.05 206.20,193.80 207.95,194.85 210.40,195.20"/>
    </edge>
    <edge id=":c11_11" function="internal">
        <lane id=":c11_11_0" index="0" speed="13.89" length="20.80" shape="204.80,189.60 204.80,210.40"/>
        <lane id=":c11_11_1" index="1" speed="13.89" length="20.80" shape="201.60,189.60 201.60,210.40"/>
    </edge>
    <edge id=":c11_13" function="internal">
        <lane id=":c11_13_0" index="0" speed="9.26" length="5.01" shape="201.60,189.60 200.89,194.56"/>
    </edge>
    <edge id=":c11_14" function="internal">
        <lane id=":c11_14_0" index="0" speed="3.65" length="1.44" shape="201.60,189.60 200.80,190.80"/>
    </edge>
    <edge id=":c11_24" function="internal">
        <lane id=":c11_24_0" index="0" speed="9.26" length="14.34" shape="200.89,194.56 200.85,194.85 198.60,198.60 194.85,200.85 189.60,201.60"/>
    </edge>
    <edge id=":c11_25" function="internal">
        <lane id=":c11_25_0" index="0" speed="3.65" length="3.23" shape="200.80,190.80 200.00,191.20 199.20,190.80 198.40,189.60"/>
    </edge>
    <edge id=":c11_15" function="internal">
        <lane id=":c11_15_0" index="0" speed="6.51" length="9.03" shape="189.60,195.20 192.05,194.85 193.80,193.80 194.85,192.05 195.20,189.60"/>
    </edge>
    <edge id=":c11_16" function="internal">
        <lane id=":c11_16_0" index="0" speed="13.89" length="20.80" shape="189.60,195.20 210.40,195.20"/>
        <lane id=":c11_16_1" index="1" speed="13.89" length="20.80" shape="189.60,198.40 210.40,198.40"/>
    </edge>
    <edge id=":c11_18" function="internal">
        <lane id=":c11_18_0" index="0" speed="9.26" length="5.01" shape="189.60,198.40 194.56,199.11"/>
    </edge>
    <edge id=":c11_19" function="internal">
        <lane id=":c11_19_0" index="0" speed="3.65" length="1.44" shape="189.60,198.40 190.80,199.20"/>
    </edge>
    <edge id=":c11_26" function="internal">
        <lane id=":c11_26_0" index="0" speed="9.26" length="14.34" shape="194.56,199.11 194.85,199.15 198.60,201.40 200.85,205.15 201.60,210.40"/>
    </edge>
    <edge id=":c11_27" function="internal">
        <lane id=":c11_27_0" index="0" speed="3.65" length="3.23" shape="190.80,199.20 191.20,200.00 190.80,200.80 189.60,201.60"/>
    </edge>
    <edge id=":c12_0" function="internal">
        <lane id=":c12_0_0" index="0" speed="6.51" length="9.03" shape="395.20,210.40 394.85,207.95 393.80,206.20 392.05,205.15 389.60,204.80"/>
    </edge>
    <edge id=":c12_1" function="internal">
        <lane id=":c12_1_0" index="0" speed="13.89" length="20.80" shape="395.20,210.40 395.20,189.60"/>
        <lane id=":c12_1_1" index="1" speed="13.89" length="20.80" shape="398.40,210.40 398.40,189.60"/>
    </edge>
    <edge id=":c12_3" function="internal">
        <lane id=":c12_3_0" index="0" speed="9.26" length="5.01" shape="398.40,210.40 399.11,205.44"/>
    </edge>
    <edge id=":c12_4" function="internal">
        <lane id=":c12_4_0" index="0" speed="3.65" length="1.44" shape="398.40,210.40 399.20,209.20"/>
    </edge>
    <edge id=":c12_20" function="internal">
        <lane id=":c12_20_0" index="0" speed="9.26" length="14.34" shape="399.11,205.44 399.15,205.15 401.40,201.40 405.15,199.15 410.40,198.40"/>
    </edge>
    <edge id=":c12_21" function="internal">
        <lane id=":c12_21_0" index="0" speed="3.65" length="3.23" shape="399.20,209.20 400.00,208.80 400.80,209.20 401.60,210.40"/>
    </edge>
    <edge id=":c12_5" function="internal">
        <lane id=":c12_5_0" index="0" speed="6.51" length="9.03" shape="410.40,204.80 407.95,205.15 406.20,206.20 405.15,207.95 404.80,210.40"/>
    </edge>
    <edge id=":c12_6" function="internal">
        <lane id=":c12_6_0" index="0" speed="13.89" length="20.80" shape="410.40,204.80 389.60,204.80"/>
        <lane id=":c12_6_1" index="1" speed="13.89" length="20.80" shape="410.40,201.60 389.60,201.60"/>
    </edge>
    <edge id=":c12_8" function="internal">
        <lane id=":c12_8_0" index="0" speed="9.26" length="5.01" shape="410.40,201.60 405.44,200.89"/>
    </edge>
    <edge id=":c12_9" function="internal">
        <lane id=":c12_9_0" index="0" speed="3.65" length="1.44" shape="410.40,201.60 409.20,200.80"/>
    </edge>
    <edge id=":c12_22" function="internal">
        <lane id=":c12_22_0" index="0" speed="9.26" length="14.34" shape="405.44,200.89 405.15,200.85 401.40,198.60 399.15,194.85 398.40,189.60"/>
    </edge>
    <edge id=":c12_23" function="internal">
        <lane id=":c12_23_0" index="0" speed="3.65" length="3.23" shape="409.20,200.80 408.80,200.00 409.20,199.20 410.40,198.40"/>
    </edge>
    <edge id=":c12_10" function="internal">
        <lane id=":c12_10_0" index="0" speed="6.51" length="9.03" shape="404.80,189.60 405.15,192.05 406.20,193.80 407.95,194.85 410.40,195.20"/>
    </edge>
    <edge id=":c12_11" function="internal">
        <lane id=":c12_11_0" index="0" speed="13.89" length="20.80" shape="404.80,189.60 404.80,210.40"/>
        <lane id=":c12_11_1" index="1" speed="13.89" length="20.80" shape="401.60,189.60 401.60,210.40"/>
    </edge>
    <edge id=":c12_13" function="internal">
        <lane id=":c12_13_0" index="0" speed="9.26" length="5.01" shape="401.60,189.60 400.89,194.56"/>
    </edge>
    <edge id=":c12_14" function="internal">
        <lane id=":c12_14_0" index="0" speed="3.65" length="1.44" shape="401.60,189.60 400.80,190.80"/>
    </edge>
    <edge id=":c12_24" function="internal">
        <lane id=":c12_24_0" index="0" speed="9.26" length="14.34" shape="400.89,194.56 400.85,194.85 398.60,198.60 394.85,200.85 389.60,201.60"/>
    </edge>
    <edge id=":c12_25" function="internal">
        <lane id=":c12_25_0" index="0" speed="3.65" length="3.23" shape="400.80,190.80 400.00,191.20 399.20,190.80 398.40,189.60"/>
    </edge>
    <edge id=":c12_15" function="internal">
        <lane id=":c12_15_0" index="0" speed="6.51" length="9.03" shape="389.60,195.20 392.05,194.85 393.80,193.80 394.85,192.05 395.20,189.60"/>
    </edge>
    <edge id=":c12_16" function="internal">
        <lane id=":c12_16_0" index="0" speed="13.89" length="20.80" shape="389.60,195.20 410.40,195.20"/>
        <lane id=":c12_16_1" index="1" speed="13.89" length="20.80" shape="389.60,198.40 410.40,198.40"/>
    </edge>
    <edge id=":c12_18" function="internal">
        <lane id=":c12_18_0" index="0" speed="9.26" length="5.01" shape="389.60,198.40 394.56,199.11"/>
    </edge>
    <edge id=":c12_19" function="internal">
        <lane id=":c12_19_0" index="0" speed="3.65" length="1.44" shape="389.60,198.40 390.80,199.20"/>
    </edge>
    <edge id=":c12_26" function="internal">
        <lane id=":c12_26_0" index="0" speed="9.26" length="14.34" shape="394.56,199.11 394.85,199.15 398.60,201.40 400.85,205.15 401.60,210.40"/>
    </edge>
    <edge id=":c12_27" function="internal">
        <lane id=":c12_27_0" index="0" speed="3.65" length="3.23" shape="390.80,199.20 391.20,200.00 390.80,200.80 389.60,201.60"/>
    </edge>
    <edge id=":c13_0" function="internal">
        <lane id=":c13_0_0" index="0" speed="6.51" length="9.03" shape="595.20,210.40 594.85,207.95 593.80,206.20 592.05,205.15 589.60,204.80"/>
    </edge>
    <edge id=":c13_1" function="internal">
        <lane id=":c13_1_0" index="0" speed="13.89" length="20.80" shape="595.20,210.40 595.20,189.60"/>
        <lane id=":c13_1_1" index="1" speed="13.89" length="20.80" shape="598.40,210.40 598.40,189.60"/>
    </edge>
    <edge id=":c13_3" function="internal">
        <lane id=":c13_3_0" index="0" speed="9.26" length="5.01" shape="598.40,210.40 599.11,205.44"/>
    </edge>
    <edge id=":c13_4" function="internal">
        <lane id=":c13_4_0" index="0" speed="3.65" length="1.44" shape="598.40,210.40 599.20,209.20"/>
    </edge>
    <edge id=":c13_20" function="internal">
        <lane id=":c13_20_0" index="0" speed="9.26" length="14.34" shape="599.11,205.44 599.15,205.15 601.40,201.40 605.15,199.15 610.40,198.40"/>
    </edge>
    <edge id=":c13_21" function="internal">
        <lane id=":c13_21_0" index="0" speed="3.65" length="3.23" shape="599.20,209.20 600.00,208.80 600.80,209.20 601.60,210.40"/>
    </edge>
    <edge id=":c13_5" function="internal">
        <lane id=":c13_5_0" index="0" speed="6.51" length="9.03" shape="610.40,204.80 607.95,205.15 606.20,206.20 605.15,207.95 604.80,210.40"/>
    </edge>
    <edge id=":c13_6" function="internal">
        <lane id=":c13_6_0" index="0" speed="13.89" length="20.80" shape="610.40,204.80 589.60,204.80"/>
        <lane id=":c13_6_1" index="1" speed="13.89" length="20.80" shape="610.40,201.60 589.60,201.60"/>
    </edge>
    <edge id=":c13_8" function="internal">
        <lane id=":c13_8_0" index="0" speed="9.26" length="5.01" shape="610.40,201.60 605.44,200.89"/>
    </edge>
    <edge id=":c13_9" function="internal">
        <lane id=":c13_9_0" index="0" speed="3.65" length="1.44" shape="610.40,201.60 609.20,200.80"/>
    </edge>
    <edge id=":c13_22" function="internal">
        <lane id=":c13_22_0" index="0" speed="9.26" length="14.34" shape="605.44,200.89 605.15,200.85 601.40,198.60 599.15,194.85 598.40,189.60"/>
    </edge>
    <edge id=":c13_23" function="internal">
        <lane id=":c13_23_0" index="0" speed="3.65" length="3.23" shape="609.20,200.80 608.80,200.00 609.20,199.20 610.40,198.40"/>
    </edge>
    <edge id=":c13_10" function="internal">
        <lane id=":c13_10_0" index="0" speed="6.51" length="9.03" shape="604.80,189.60 605.15,192.05 606.20,193.80 607.95,194.85 610.40,195.20"/>
    </edge>
    <edge id=":c13_11" function="internal">
        <lane id=":c13_11_0" index="0" speed="13.89" length="20.80" shape="604.80,189.60 604.80,210.40"/>
        <lane id=":c13_11_1" index="1" speed="13.89" length="20.80" shape="601.60,189.60 601.60,210.40"/>
    </edge>
    <edge id=":c13_13" function="internal">
        <lane id=":c13_13_0" index="0" speed="9.26" length="5.01" shape="601.60,189.60 600.89,194.56"/>
    </edge>
    <edge id=":c13_14" function="internal">
        <lane id=":c13_14_0" index="0" speed="3.65" length="1.44" shape="601.60,189.60 600.80,190.80"/>
    </edge>
    <edge id=":c13_24" function="internal">
        <lane id=":c13_24_0" index="0" speed="9.26" length="14.34" shape="600.89,194.56 600.85,194.85 598.60,198.60 594.85,200.85 589.60,201.60"/>
    </edge>
    <edge id=":c13_25" function="internal">
        <lane id=":c13_25_0" index="0" speed="3.65" length="3.23" shape="600.80,190.80 600.00,191.20 599.20,190.80 598.40,189.60"/>
    </edge>
    <edge id=":c13_15" function="internal">
        <lane id=":c13_15_0" index="0" speed="6.51" length="9.03" shape="589.60,195.20 592.05,194.85 593.80,193.80 594.85,192.05 595.20,189.60"/>
    </edge>
    <edge id=":c13_16" function="internal">
        <lane id=":c13_16_0" index="0" speed="13.89" length="20.80" shape="589.60,195.20 610.40,195.20"/>
        <lane id=":c13_16_1" index="1" speed="13.89" length="20.80" shape="589.60,198.40 610.40,198.40"/>
    </edge>
    <edge id=":c13_18" function="internal">
        <lane id=":c13_18_0" index="0" speed="9.26" length="5.01" shape="589.60,198.40 594.56,199.11"/>
    </edge>
    <edge id=":c13_19" function="internal">
        <lane id=":c13_19_0" index="0" speed="3.65" length="1.44" shape="589.60,198.40 590.80,199.20"/>
    </edge>
    <edge id=":c13_26" function="internal">
        <lane id=":c13_26_0" index="0" speed="9.26" length="14.34" shape="594.56,199.11 594.85,199.15 598.60,201.40 600.85,205.15 601.60,210.40"/>
    </edge>
    <edge id=":c13_27" function="internal">
        <lane id=":c13_27_0" index="0" speed="3.65" length="3.23" shape="590.80,199.20 591.20,200.00 590.80,200.80 589.60,201.60"/>
    </edge>
    <edge id=":c14_0" function="internal">
        <lane id=":c14_0_0" index="0" speed="6.51" length="9.03" shape="795.20,210.40 794.85,207.95 793.80,206.20 792.05,205.15 789.60,204.80"/>
    </edge>
    <edge id=":c14_1" function="internal">
        <lane id=":c14_1_0" index="0" speed="13.89" length="20.80" shape="795.20,210.40 795.20,189.60"/>
        <lane id=":c14_1_1" index="1" speed="13.89" length="20.80" shape="798.40,210.40 798.40,189.60"/>
    </edge>
    <edge id=":c14_3" function="internal">
        <lane id=":c14_3_0" index="0" speed="9.26" length="5.01" shape="798.40,210.40 799.11,205.44"/>
    </edge>
    <edge id=":c14_4" function="internal">
        <lane id=":c14_4_0" index="0" speed="3.65" length="1.44" shape="798.40,210.40 799.20,209.20"/>
    </edge>
    <edge id=":c14_20" function="internal">
        <lane id=":c14_20_0" index="0" speed="9.26" length="14.34" shape="799.11,205.44 799.15,205.15 801.40,201.40 805.15,199.15 810.40,198.40"/>
    </edge>
    <edge id=":c14_21" function="internal">
        <lane id=":c14_21_0" index="0" speed="3.65" length="3.23" shape="799.20,209.20 800.00,208.80 800.80,209.20 801.60,210.40"/>
    </edge>
    <edge id=":c14_5" function="internal">
        <lane id=":c14_5_0" index="0" speed="6.51" length="9.03" shape="810.40,204.80 807.95,205.15 806.20,206.20 805.15,207.95 804.80,210.40"/>
    </edge>
    <edge id=":c14_6" function="internal">
        <lane id=":c14_6_0" index="0" speed="13.89" length="20.80" shape="810.40,204.80 789.60,204.80"/>
        <lane id=":c14_6_1" index="1" speed="13.89" length="20.80" shape="810.40,201.60 789.60,201.60"/>
    </edge>
    <edge id=":c14_8" function="internal">
        <lane id=":c14_8_0" index="0" speed="9.26" length="5.01" shape="810.40,201.60 805.44,200.89"/>
    </edge>
    <edge id=":c14_9" function="internal">
        <lane id=":c14_9_0" index="0" speed="3.65" length="1.44" shape="810.40,201.60 809.20,200.80"/>
    </edge>
    <edge id=":c14_22" function="internal">
        <lane id=":c14_22_0" index="0" speed="9.26" length="14.34" shape="805.44,200.89 805.15,200.85 801.40,198.60 799.15,194.85 798.40,189.60"/>
    </edge>
    <edge id=":c14_23" function="internal">
        <lane id=":c14_23_0" index="0" speed="3.65" length="3.23" shape="809.20,200.80 808.80,200.00 809.20,199.20 810.40,198.40"/>
    </edge>
    <edge id=":c14_10" function="internal">
        <lane id=":c14_10_0" index="0" speed="6.51" length="9.03" shape="804.80,189.60 805.15,192.05 806.20,193.80 807.95,194.85 810.40,195.20"/>
    </edge>
    <edge id=":c14_11" function="internal">
        <lane id=":c14_11_0" index="0" speed="13.89" length="20.80" shape="804.80,189.60 804.80,210.40"/>
        <lane id=":c14_11_1" index="1" speed="13.89" length="20.80" shape="801.60,189.60 801.60,210.40"/>
    </edge>
    <edge id=":c14_13" function="internal">
        <lane id=":c14_13_0" index="0" speed="9.26" length="5.01" shape="801.60,189.60 800.89,194.56"/>
    </edge>
    <edge id=":c14_14" function="internal">
        <lane id=":c14_14_0" index="0" speed="3.65" length="1.44" shape="801.60,189.60 800.80,190.80"/>
    </edge>
    <edge id=":c14_24" function="internal">
        <lane id=":c14_24_0" index="0" speed="9.26" length="14.34" shape="800.89,194.56 800.85,194.85 798.60,198.60 794.85,200.85 789.60,201.60"/>
    </edge>
    <edge id=":c14_25" function="internal">
        <lane id=":c14_25_0" index="0" speed="3.65" length="3.23" shape="800.80,190.80 800.00,191.20 799.20,190.80 798.40,189.60"/>
    </edge>
    <edge id=":c14_15" function="internal">
        <lane id=":c14_15_0" index="0" speed="6.51" length="9.03" shape="789.60,195.20 792.05,194.85 793.80,193.80 794.85,192.05 795.20,189.60"/>
    </edge>
    <edge id=":c14_16" function="internal">
        <lane id=":c14_16_0" index="0" speed="13.89" length="20.80" shape="789.60,195.20 810.40,195.20"/>
        <lane id=":c14_16_1" index="1" speed="13.89" length="20.80" shape="789.60,198.40 810.40,198.40"/>
    </edge>
    <edge id=":c14_18" function="internal">
        <lane id=":c14_18_0" index="0" speed="9.26" length="5.01" shape="789.60,198.40 794.56,199.11"/>
    </edge>
    <edge id=":c14_19" function="internal">
        <lane id=":c14_19_0" index="0" speed="3.65" length="1.44" shape="789.60,198.40 790.80,199.20"/>
    </edge>
    <edge id=":c14_26" function="internal">
        <lane id=":c14_26_0" index="0" speed="9.26" length="14.34" shape="794.56,199.11 794.85,199.15 798.60,201.40 800.85,205.15 801.60,210.40"/>
    </edge>
    <edge id=":c14_27" function="internal">
        <lane id=":c14_27_0" index="0" speed="3.65" length="3.23" shape="790.80,199.20 791.20,200.00 790.80,200.80 789.60,201.60"/>
    </edge>
    <edge id=":c21_0" function="internal">
        <lane id=":c21_0_0" index="0" speed="6.51" length="9.03" shape="195.20,410.40 194.85,407.95 193.80,406.20 192.05,405.15 189.60,404.80"/>
    </edge>
    <edge id=":c21_1" function="internal">
        <lane id=":c21_1_0" index="0" speed="13.89" length="20.80" shape="195.20,410.40 195.20,389.60"/>
        <lane id=":c21_1_1" index="1" speed="13.89" length="20.80" shape="198.40,410.40 198.40,389.60"/>
    </edge>
    <edge id=":c21_3" function="internal">
        <lane id=":c21_3_0" index="0" speed="9.26" length="5.01" shape="198.40,410.40 199.11,405.44"/>
    </edge>
    <edge id=":c21_4" function="internal">
        <lane id=":c21_4_0" index="0" speed="3.65" length="1.44" shape="198.40,410.40 199.20,409.20"/>
    </edge>
    <edge id=":c21_20" function="internal">
        <lane id=":c21_20_0" index="0" speed="9.26" length="14.34" shape="199.11,405.44 199.15,405.15 201.40,401.40 205.15,399.15 210.40,398.40"/>
    </edge>
    <edge id=":c21_21" function="internal">
        <lane id=":c21_21_0" index="0" speed="3.65" length="3.23" shape="199.20,409.20 200.00,408.80 200.80,409.20 201.60,410.40"/>
    </edge>
    <edge id=":c21_5" function="internal">
        <lane id=":c21_5_0" index="0" speed="6.51" length="9.03" shape="210.40,404.80 207.95,405.15 206.20,406.20 205.15,407.95 204.80,410.40"/>
    </edge>
    <edge id=":c21_6" function="internal">
        <lane id=":c21_6_0" index="0" speed="13.89" length="20.80" shape="210.40,404.80 189.60,404.80"/>
        <lane id=":c21_6_1" index="1" speed="13.89" length="20.80" shape="210.40,401.60 189.60,401.60"/>
    </edge>
    <edge id=":c21_8" function="internal">
        <lane id=":c21_8_0" index="0" speed="9.26" length="5.01" shape="210.40,401.60 205.44,400.89"/>
    </edge>
    <edge id=":c21_9" function="internal">
        <lane id=":c21_9_0" index="0" speed="3.65" length="1.44" shape="210.40,401.60 209.20,400.80"/>
    </edge>
    <edge id=":c21_22" function="internal">
        <lane id=":c21_22_0" index="0" speed="9.26" length="14.34" shape="205.44,400.89 205.15,400.85 201.40,398.60 199.15,394.85 198.40,389.60"/>
    </edge>
    <edge id=":c21_23" function="internal">
        <lane id=":c21_23_0" index="0" speed="3.65" length="3.23" shape="209.20,400.80 208.80,400.00 209.20,399.20 210.40,398.40"/>
    </edge>
    <edge id=":c21_10" function="internal">
        <lane id=":c21_10_0" index="0" speed="6.51" length="9.03" shape="204.80,389.60 205.15,392.05 206.20,393.80 207.95,394.85 210.40,395.20"/>
    </edge>
    <edge id=":c21_11" function="internal">
        <lane id=":c21_11_0" index="0" speed="13.89" length="20.80" shape="204.80,389.60 204.80,410.40"/>
        <lane id=":c21_11_1" index="1" speed="13.89" length="20.80" shape="201.60,389.60 201.60,410.40"/>
    </edge>
    <edge id=":c21_13" function="internal">
        <lane id=":c21_13_0" index="0" speed="9.26" length="5.01" shape="201.60,389.60 200.89,394.56"/>
    </edge>
    <edge id=":c21_14" function="internal">
        <lane id=":c21_14_0" index="0" speed="3.65" length="1.44" shape="201.60,389.60 200.80,390.80"/>
    </edge>
    <edge id=":c21_24" function="internal">
        <lane id=":c21_24_0" index="0" speed="9.26" length="14.34" shape="200.89,394.56 200.85,394.85 198.60,398.60 194.85,400.85 189.60,401.60"/>
    </edge>
    <edge id=":c21_25" function="internal">
        <lane id=":c21_25_0" index="0" speed="3.65" length="3.23" shape="200.80,390.80 200.00,391.20 199.20,390.80 198.40,389.60"/>
    </edge>
    <edge id=":c21_15" function="internal">
        <lane id=":c21_15_0" index="0" speed="6.51" length="9.03" shape="189.60,395.20 192.05,394.85 193.80,393.80 194.85,392.05 195.20,389.60"/>
    </edge>
    <edge id=":c21_16" function="internal">
        <lane id=":c21_16_0" index="0" speed="13.89" length="20.80" shape="189.60,395.20 210.40,395.20"/>
        <lane id=":c21_16_1" index="1" speed="13.89" length="20.80" shape="189.60,398.40 210.40,398.40"/>
    </edge>
    <edge id=":c21_18" function="internal">
        <lane id=":c21_18_0" index="0" speed="9.26" length="5.01" shape="189.60,398.40 194.56,399.11"/>
    </edge>
    <edge id=":c21_19" function="internal">
        <lane id=":c21_19_0" index="0" speed="3.65" length="1.44" shape="189.60,398.40 190.80,399.20"/>
    </edge>
    <edge id=":c21_26" function="internal">
        <lane id=":c21_26_0" index="0" speed="9.26" length="14.34" shape="194.56,399.11 194.85,399.15 198.60,401.40 200.85,405.15 201.60,410.40"/>
    </edge>
    <edge id=":c21_27" function="internal">
        <lane id=":c21_27_0" index="0" speed="3.65" length="3.23" shape="190.80,399.20 191.20,400.00 190.80,400.80 189.60,401.60"/>
    </edge>
    <edge id=":c22_0" function="internal">
        <lane id=":c22_0_0" index="0" speed="6.51" length="9.03" shape="395.20,410.40 394.85,407.95 393.80,406.20 392.05,405.15 389.60,404.80"/>
    </edge>
    <edge id=":c22_1" function="internal">
        <lane id=":c22_1_0" index="0" speed="13.89" length="20.80" shape="395.20,410.40 395.20,389.60"/>
        <lane id=":c22_1_1" index="1" speed="13.89" length="20.80" shape="398.40,410.40 398.40,389.60"/>
    </edge>
    <edge id=":c22_3" function="internal">
        <lane id=":c22_3_0" index="0" speed="9.26" length="5.01" shape="398.40,410.40 399.11,405.44"/>
    </edge>
    <edge id=":c22_4" function="internal">
        <lane id=":c22_4_0" index="0" speed="3.65" length="1.44" shape="398.40,410.40 399.20,409.20"/>
    </edge>
    <edge id=":c22_20" function="internal">
        <lane id=":c22_20_0" index="0" speed="9.26" length="14.34" shape="399.11,405.44 399.15,405.15 401.40,401.40 405.15,399.15 410.40,398.40"/>
    </edge>
    <edge id=":c22_21" function="internal">
        <lane id=":c22_21_0" index="0" speed="3.65" length="3.23" shape="399.20,409.20 400.00,408.80 400.80,409.20 401.60,410.40"/>
    </edge>
    <edge id=":c22_5" function="internal">
        <lane id=":c22_5_0" index="0" speed="6.51" length="9.03" shape="410.40,404.80 407.95,405.15 406.20,406.20 405.15,407.95 404.80,410.40"/>
    </edge>
    <edge id=":c22_6" function="internal">
        <lane id=":c22_6_0" index="0" speed="13.89" length="20.80" shape="410.40,404.80 389.60,404.80"/>
        <lane id=":c22_6_1" index="1" speed="13.89" length="20.80" shape="410.40,401.60 389.60,401.60"/>
    </edge>
    <edge id=":c22_8" function="internal">
        <lane id=":c22_8_0" index="0" speed="9.26" length="5.01" shape="410.40,401.60 405.44,400.89"/>
    </edge>
    <edge id=":c22_9" function="internal">
        <lane id=":c22_9_0" index="0" speed="3.65" length="1.44" shape="410.40,401.60 409.20,400.80"/>
    </edge>
    <edge id=":c22_22" function="internal">
        <lane id=":c22_22_0" index="0" speed="9.26" length="14.34" shape="405.44,400.89 405.15,400.85 401.40,398.60 399.15,394.85 398.40,389.60"/>
    </edge>
    <edge id=":c22_23" function="internal">
        <lane id=":c22_23_0" index="0" speed="3.65" length="3.23" shape="409.20,400.80 408.80,400.00 409.20,399.20 410.40,398.40"/>
    </edge>
    <edge id=":c22_10" function="internal">
        <lane id=":c22_10_0" index="0" speed="6.51" length="9.03" shape="404.80,389.60 405.15,392.05 406.20,393.80 407.95,394.85 410.40,395.20"/>
    </edge>
    <edge id=":c22_11" function="internal">
        <lane id=":c22_11_0" index="0" speed="13.89" length="20.80" shape="404.80,389.60 404.80,410.40"/>
        <lane id=":c22_11_1" index="1" speed="13.89" length="20.80" shape="401.60,389.60 401.60,410.40"/>
    </edge>
    <edge id=":c22_13" function="internal">
        <lane id=":c22_13_0" index="0" speed="9.26" length="5.01" shape="401.60,389.60 400.89,394.56"/>
    </edge>
    <edge id=":c22_14" function="internal">
        <lane id=":c22_14_0" index="0" speed="3.65" length="1.44" shape="401.60,389.60 400.80,390.80"/>
    </edge>
    <edge id=":c22_24" function="internal">
        <lane id=":c22_24_0" index="0" speed="9.26" length="14.34" shape="400.89,394.56 400.85,394.85 398.60,398.60 394.85,400.85 389.60,401.60"/>
    </edge>
    <edge id=":c22_25" function="internal">
        <lane id=":c22_25_0" index="0" speed="3.65" length="3.23" shape="400.80,390.80 400.00,391.20 399.20,390.80 398.40,389.60"/>
    </edge>
    <edge id=":c22_15" function="internal">
        <lane id=":c22_15_0" index="0" speed="6.51" length="9.03" shape="389.60,395.20 392.05,394.85 393.80,393.80 394.85,392.05 395.20,389.60"/>
    </edge>
    <edge id=":c22_16" function="internal">
        <lane id=":c22_16_0" index="0" speed="13.89" length="20.80" shape="389.60,395.20 410.40,395.20"/>
        <lane id=":c22_16_1" index="1" speed="13.89" length="20.80" shape="389.60,398.40 410.40,398.40"/>
    </edge>
    <edge id=":c22_18" function="internal">
        <lane id=":c22_18_0" index="0" speed="9.26" length="5.01" shape="389.60,398.40 394.56,399.11"/>
    </edge>
    <edge id=":c22_19" function="internal">
        <lane id=":c22_19_0" index="0" speed="3.65" length="1.44" shape="389.60,398.40 390.80,399.20"/>
    </edge>
    <edge id=":c22_26" function="internal">
        <lane id=":c22_26_0" index="0" speed="9.26" length="14.34" shape="394.56,399.11 394.85,399.15 398.60,401.40 400.85,405.15 401.60,410.40"/>
    </edge>
    <edge id=":c22_27" function="internal">
        <lane id=":c22_27_0" index="0" speed="3.65" length="3.23" shape="390.80,399.20 391.20,400.00 390.80,400.80 389.60,401.60"/>
    </edge>
    <edge id=":c23_0" function="internal">
        <lane id=":c23_0_0" index="0" speed="6.51" length="9.03" shape="595.20,410.40 594.85,407.95 593.80,406.20 592.05,405.15 589.60,404.80"/>
    </edge>
    <edge id=":c23_1" function="internal">
        <lane id=":c23_1_0" index="0" speed="13.89" length="20.80" shape="595.20,410.40 595.20,389.60"/>
        <lane id=":c23_1_1" index="1" speed="13.89" length="20.80" shape="598.40,410.40 598.40,389.60"/>
    </edge>
    <edge id=":c23_3" function="internal">
        <lane id=":c23_3_0" index="0" speed="9.26" length="5.01" shape="598.40,410.40 599.11,405.44"/>
    </edge>
    <edge id=":c23_4" function="internal">
        <lane id=":c23_4_0" index="0" speed="3.65" length="1.44" shape="598.40,410.40 599.20,409.20"/>
    </edge>
    <edge id=":c23_20" function="internal">