<?xml version="1.0" encoding="UTF-8"?>
<nodes xmlns:xsi="http://www.w3.org/2001/XMLSchema-instance" xsi:noNamespaceSchemaLocation="http://sumo.dlr.de/xsd/nodes_file.xsd">
    <!-- Central intersection -->
    <node id="center" x="0" y="0" type="traffic_light"/>
    
    <!-- External nodes for incoming/outgoing traffic -->
    <node id="north" x="0" y="200" type="priority"/>
    <node id="south" x="0" y="-200" type="priority"/>
    <node id="east" x="200" y="0" type="priority"/>
    <node id="west" x="-200" y="0" type="priority"/>
</nodes> 