<?xml version="1.0" encoding="UTF-8"?>

<!-- Simple Test Configuration -->
<configuration xmlns:xsi="http://www.w3.org/2001/XMLSchema-instance" xsi:noNamespaceSchemaLocation="http://sumo.dlr.de/xsd/sumoConfiguration.xsd">

    <input>
        <net-file value="simple_intersection.net.xml"/>
        <route-files value="simple_routes.rou.xml"/>
    </input>

    <time>
        <begin value="0"/>
        <end value="300"/>  <!-- 5 minute test -->
        <step-length value="1"/>
    </time>

    <report>
        <verbose value="false"/>
        <no-step-log value="true"/>
        <duration-log.statistics value="true"/>
    </report>

</configuration> 